REMARK  Name = 
REMARK  20 active torsions:
REMARK  status: ('A' for Active; 'I' for Inactive)
REMARK    1  A    between atoms: C_2  and  C_3
REMARK    2  A    between atoms: C_3  and  C_4
REMARK    3  A    between atoms: C_4  and  C_5
REMARK    4  A    between atoms: C_5  and  C_6
REMARK    5  A    between atoms: C_6  and  C_7
REMARK    6  A    between atoms: C_7  and  C_8
REMARK    7  A    between atoms: C_8  and  C_9
REMARK    8  A    between atoms: C_9  and  C_10
REMARK    9  A    between atoms: C_10  and  C_11
REMARK   10  A    between atoms: C_11  and  C_12
REMARK   11  A    between atoms: C_12  and  C_13
REMARK   12  A    between atoms: C_13  and  C_14
REMARK   13  A    between atoms: C_14  and  C_15
REMARK   14  A    between atoms: C_15  and  C_16
REMARK   15  A    between atoms: C_16  and  C_17
REMARK   16  A    between atoms: C_17  and  C_18
REMARK   17  A    between atoms: C_18  and  C_19
REMARK   18  A    between atoms: C_19  and  C_20
REMARK   19  A    between atoms: C_20  and  C_21
REMARK   20  A    between atoms: C_21  and  C_22
REMARK                            x       y       z     vdW  Elec       q    Type
REMARK                         _______ _______ _______ _____ _____    ______ ____
ROOT
ATOM      1  C   UNL     1       0.076   1.097   0.559  0.00  0.00    +0.000 C 
ENDROOT
BRANCH   1   2
ATOM      2  C   UNL     1       0.685  -0.186   0.005  0.00  0.00    +0.000 C 
BRANCH   2   3
ATOM      3  C   UNL     1       1.839  -0.517   0.946  0.00  0.00    +0.000 C 
BRANCH   3   4
ATOM      4  C   UNL     1       2.639   0.764   1.068  0.00  0.00    +0.000 C 
BRANCH   4   5
ATOM      5  C   UNL     1       3.216   1.161  -0.262  0.00  0.00    +0.000 C 
BRANCH   5   6
ATOM      6  C   UNL     1       4.245   0.145  -0.708  0.00  0.00    +0.000 C 
BRANCH   6   7
ATOM      7  C   UNL     1       4.515  -0.909   0.329  0.00  0.00    +0.000 C 
BRANCH   7   8
ATOM      8  C   UNL     1       5.104  -0.299   1.564  0.00  0.00    +0.000 C 
BRANCH   8   9
ATOM      9  C   UNL     1       6.597  -0.407   1.648  0.00  0.00    +0.000 C 
BRANCH   9  10
ATOM     10  C   UNL     1       7.325   0.589   0.792  0.00  0.00    +0.000 C 
BRANCH  10  12
ATOM     11  C   UNL     1       8.143   0.271  -1.552  0.00  0.00    +0.000 C 
ATOM     12  C   UNL     1       8.315  -0.135  -0.114  0.00  0.00    +0.000 C 
ENDBRANCH  10  12
ENDBRANCH   9  10
ENDBRANCH   8   9
ENDBRANCH   7   8
ENDBRANCH   6   7
ENDBRANCH   5   6
ENDBRANCH   4   5
ENDBRANCH   3   4
ENDBRANCH   2   3
ENDBRANCH   1   2
BRANCH   1  13
ATOM     13  C   UNL     1      -1.331   0.770   1.036  0.00  0.00    +0.000 C 
BRANCH  13  14
ATOM     14  C   UNL     1      -1.692  -0.679   0.732  0.00  0.00    +0.000 C 
BRANCH  14  15
ATOM     15  C   UNL     1      -2.650  -0.638  -0.454  0.00  0.00    +0.000 C 
BRANCH  15  16
ATOM     16  C   UNL     1      -3.451   0.628  -0.353  0.00  0.00    +0.000 C 
BRANCH  16  17
ATOM     17  C   UNL     1      -4.324   0.837  -1.558  0.00  0.00    +0.000 C 
BRANCH  17  18
ATOM     18  C   UNL     1      -4.899  -0.470  -2.060  0.00  0.00    +0.000 C 
BRANCH  18  19
ATOM     19  C   UNL     1      -6.286  -0.311  -2.634  0.00  0.00    +0.000 C 
BRANCH  19  20
ATOM     20  C   UNL     1      -7.338  -0.359  -1.534  0.00  0.00    +0.003 C 
BRANCH  20  21
ATOM     21  C   UNL     1      -6.770   0.384  -0.356  0.00  0.00    +0.036 C 
BRANCH  21  22
ATOM     22  C   UNL     1      -7.438   0.033   0.945  0.00  0.00    +0.182 C 
ATOM     23  O   UNL     1      -6.518   0.348   1.958  0.00  0.00    -0.220 OA
ENDBRANCH  21  22
ENDBRANCH  20  21
ENDBRANCH  19  20
ENDBRANCH  18  19
ENDBRANCH  17  18
ENDBRANCH  16  17
ENDBRANCH  15  16
ENDBRANCH  14  15
ENDBRANCH  13  14
ENDBRANCH   1  13
TORSDOF 20
